* File: hamminglay_pex.sp.pex
* Created: Sat Nov  4 18:09:15 2017
* Program "Calibre xRC"
* Version "v2013.4_37.29"
* Nominal Temperature: 27C
* Circuit Temperature: 27C
* 
.subckt PM_HAMMINGLAY_X40.8 3 7 10 11 12 14 68 71 74 76
c8 85 GND 0.0854991f
c9 84 GND 0.05346f
c10 79 GND 0.03888f
c11 63 GND 0.0103686f
c12 62 GND 0.02623f
c13 59 GND 0.00279f
c14 55 GND 0.00496f
c15 53 GND 0.00669414f
c16 49 GND 0.00799552f
c17 47 GND 0.00775f
c18 42 GND 0.00496f
c19 40 GND 0.0161801f
c20 36 GND 0.00799552f
c21 35 GND 0.0855285f
c22 34 GND 0.00775f
c23 28 GND 0.00669414f
c24 25 GND 0.00248f
c25 18 GND 0.00248f
c26 14 GND 0.0663199f
c27 12 GND 0.0184725f
c28 11 GND 0.163802f
c29 10 GND 0.0457175f
c30 7 GND 0.0379243f
c31 3 GND 0.0229603f
r32 84 87 0.0461131
r33 84 85 8.58
r34 79 82 0.0461131
r35 62 67 6.90613
r36 62 66 6.90613
r37 61 63 0.0451795
r38 61 62 9.6
r39 56 76 4.99523
r40 55 58 0.0451595
r41 55 56 10.4
r42 47 49 0.0434303
r43 47 85 4.29
r44 43 74 4.99523
r45 42 45 0.0451595
r46 42 43 10.4
r47 40 45 0.464
r48 35 79 8.58
r49 34 36 0.0434303
r50 34 35 4.29
r51 32 59 0.00880368
r52 32 63 0.310667
r53 29 59 0.0338756
r54 29 53 0.192
r55 28 59 0.0338756
r56 28 58 0.192
r57 26 71 1.60714
r58 26 47 10.8
r59 25 53 0.0436996
r60 25 49 0.129
r61 25 26 10.8
r62 19 68 1.60714
r63 19 34 10.8
r64 18 40 0.0436996
r65 18 36 0.129
r66 18 19 10.8
r67 14 87 0.155167
r68 11 14 0.039111
r69 11 12 0.504
r70 10 12 0.039111
r71 10 82 0.151667
r72 7 67 48.3175
r73 3 66 34.0725
.ends

.subckt PM_HAMMINGLAY_X40.9 3 7 11 12 68 71 74 76 81 86
c8 86 GND 0.0663199f
c9 84 GND 0.05346f
c10 81 GND 0.0457175f
c11 79 GND 0.03888f
c12 63 GND 0.0103686f
c13 62 GND 0.02623f
c14 59 GND 0.00279f
c15 57 GND 0.00669414f
c16 55 GND 0.00496f
c17 51 GND 0.00248f
c18 48 GND 0.0854991f
c19 44 GND 0.00775f
c20 41 GND 0.0161801f
c21 39 GND 0.00496f
c22 35 GND 0.00248f
c23 32 GND 0.0855285f
c24 28 GND 0.00775f
c25 22 GND 0.00669414f
c26 20 GND 0.00799552f
c27 16 GND 0.00799552f
c28 12 GND 0.0184725f
c29 11 GND 0.163802f
c30 7 GND 0.0229603f
c31 3 GND 0.0379243f
r32 84 86 0.0461271
r33 79 81 0.0461271
r34 62 67 6.90486
r35 62 66 6.90739
r36 61 63 0.0451795
r37 61 62 9.6
r38 56 76 4.99523
r39 55 57 0.0451995
r40 55 56 10.4
r41 51 53 0.0451595
r42 48 84 8.58
r43 45 71 1.60714
r44 45 51 10.8
r45 44 49 0.0442143
r46 44 48 4.29
r47 44 45 10.8
r48 40 74 4.99523
r49 39 41 0.0451995
r50 39 40 10.4
r51 37 41 0.464
r52 35 37 0.0451595
r53 32 79 8.58
r54 29 68 1.60714
r55 29 35 10.8
r56 28 33 0.0442143
r57 28 32 4.29
r58 28 29 10.8
r59 26 59 0.00880368
r60 26 63 0.310667
r61 23 59 0.0338756
r62 23 57 0.192
r63 22 59 0.0338756
r64 22 53 0.192
r65 20 51 2e-05
r66 20 49 0.129
r67 16 35 2e-05
r68 16 33 0.129
r69 13 86 0.155167
r70 11 13 0.039111
r71 11 12 0.504
r72 9 12 0.039111
r73 9 81 0.151667
r74 7 67 34.0725
r75 3 66 48.3175
.ends

.subckt PM_HAMMINGLAY_X40.10 3 7 10 11 12 14 68 71 74 76
c8 85 GND 0.0854991f
c9 84 GND 0.05346f
c10 79 GND 0.03888f
c11 63 GND 0.0103686f
c12 62 GND 0.02623f
c13 59 GND 0.00279f
c14 55 GND 0.00496f
c15 53 GND 0.00669414f
c16 47 GND 0.00775f
c17 42 GND 0.00496f
c18 40 GND 0.0161801f
c19 35 GND 0.0855285f
c20 34 GND 0.00775f
c21 28 GND 0.00669414f
c22 25 GND 0.00799552f
c23 22 GND 0.00248f
c24 18 GND 0.00799552f
c25 15 GND 0.00248f
c26 14 GND 0.0663199f
c27 12 GND 0.0184725f
c28 11 GND 0.163802f
c29 10 GND 0.0457175f
c30 7 GND 0.0379243f
c31 3 GND 0.0229603f
r32 84 87 0.0460991
r33 84 85 8.58
r34 79 82 0.0460991
r35 62 67 6.90486
r36 62 66 6.90739
r37 61 63 0.0451795
r38 61 62 9.6
r39 56 76 4.99523
r40 55 58 0.0451595
r41 55 56 10.4
r42 47 49 0.0434463
r43 47 85 4.29
r44 43 74 4.99523
r45 42 45 0.0451595
r46 42 43 10.4
r47 40 45 0.464
r48 35 79 8.58
r49 34 36 0.0434463
r50 34 35 4.29
r51 32 59 0.00880368
r52 32 63 0.310667
r53 29 59 0.0338756
r54 29 53 0.192
r55 28 59 0.0338756
r56 28 58 0.192
r57 26 71 1.60714
r58 26 47 10.8
r59 25 49 0.12898
r60 25 26 10.8
r61 22 53 0.0436996
r62 22 25 2e-05
r63 19 68 1.60714
r64 19 34 10.8
r65 18 36 0.12898
r66 18 19 10.8
r67 15 40 0.0436996
r68 15 18 2e-05
r69 14 87 0.155167
r70 11 14 0.039111
r71 11 12 0.504
r72 10 12 0.039111
r73 10 82 0.151667
r74 7 67 48.3175
r75 3 66 34.0725
.ends

.subckt PM_HAMMINGLAY_X40.11 3 7 10 11 12 68 71 74 76
c6 85 GND 0.0854991f
c7 84 GND 0.05346f
c8 79 GND 0.03888f
c9 63 GND 0.0103686f
c10 62 GND 0.02623f
c11 59 GND 0.00279f
c12 55 GND 0.00496f
c13 53 GND 0.00669414f
c14 49 GND 0.00799552f
c15 47 GND 0.00775f
c16 42 GND 0.00496f
c17 40 GND 0.0161801f
c18 36 GND 0.00799552f
c19 35 GND 0.0855285f
c20 34 GND 0.00775f
c21 28 GND 0.00669414f
c22 25 GND 0.00248f
c23 18 GND 0.00248f
c24 14 GND 0.0663199f
c25 12 GND 0.0184725f
c26 11 GND 0.164253f
c27 10 GND 0.04622f
c28 7 GND 0.0379243f
c29 3 GND 0.0229603f
r30 84 87 0.0461131
r31 84 85 8.58
r32 79 82 0.0461131
r33 62 67 6.90613
r34 62 66 6.90613
r35 61 63 0.0451795
r36 61 62 9.6
r37 56 76 4.99523
r38 55 58 0.0451595
r39 55 56 10.4
r40 47 49 0.0434303
r41 47 85 4.29
r42 43 74 4.99523
r43 42 45 0.0451595
r44 42 43 10.4
r45 40 45 0.464
r46 35 79 8.58
r47 34 36 0.0434303
r48 34 35 4.29
r49 32 59 0.00880368
r50 32 63 0.310667
r51 29 59 0.0338756
r52 29 53 0.192
r53 28 59 0.0338756
r54 28 58 0.192
r55 26 71 1.60714
r56 26 47 10.8
r57 25 53 0.0436996
r58 25 49 0.129
r59 25 26 10.8
r60 19 68 1.60714
r61 19 34 10.8
r62 18 40 0.0436996
r63 18 36 0.129
r64 18 19 10.8
r65 14 87 0.155167
r66 11 14 0.039111
r67 11 12 0.504
r68 10 12 0.039111
r69 10 82 0.151667
r70 7 67 48.3175
r71 3 66 34.0725
.ends

.subckt PM_HAMMINGLAY_X40.12 3 7 11 12 68 71 74 76 81
c6 86 GND 0.0663199f
c7 84 GND 0.05346f
c8 81 GND 0.04622f
c9 79 GND 0.03888f
c10 63 GND 0.0103686f
c11 62 GND 0.02623f
c12 59 GND 0.00279f
c13 57 GND 0.00669414f
c14 55 GND 0.00496f
c15 51 GND 0.00248f
c16 48 GND 0.0854991f
c17 44 GND 0.00775f
c18 41 GND 0.0161801f
c19 39 GND 0.00496f
c20 35 GND 0.00248f
c21 32 GND 0.0855285f
c22 28 GND 0.00775f
c23 22 GND 0.00669414f
c24 20 GND 0.00799552f
c25 16 GND 0.00799552f
c26 12 GND 0.0184725f
c27 11 GND 0.164253f
c28 7 GND 0.0229603f
c29 3 GND 0.0379243f
r30 84 86 0.0461271
r31 79 81 0.0461271
r32 62 67 6.90486
r33 62 66 6.90739
r34 61 63 0.0451795
r35 61 62 9.6
r36 56 76 4.99523
r37 55 57 0.0451995
r38 55 56 10.4
r39 51 53 0.0451595
r40 48 84 8.58
r41 45 71 1.60714
r42 45 51 10.8
r43 44 49 0.0442143
r44 44 48 4.29
r45 44 45 10.8
r46 40 74 4.99523
r47 39 41 0.0451995
r48 39 40 10.4
r49 37 41 0.464
r50 35 37 0.0451595
r51 32 79 8.58
r52 29 68 1.60714
r53 29 35 10.8
r54 28 33 0.0442143
r55 28 32 4.29
r56 28 29 10.8
r57 26 59 0.00880368
r58 26 63 0.310667
r59 23 59 0.0338756
r60 23 57 0.192
r61 22 59 0.0338756
r62 22 53 0.192
r63 20 51 2e-05
r64 20 49 0.129
r65 16 35 2e-05
r66 16 33 0.129
r67 13 86 0.155167
r68 11 13 0.039111
r69 11 12 0.504
r70 9 12 0.039111
r71 9 81 0.151667
r72 7 67 34.0725
r73 3 66 48.3175
.ends

.subckt PM_HAMMINGLAY_X40.13 3 7 10 11 12 68 71 74 76
c6 85 GND 0.0854991f
c7 84 GND 0.05346f
c8 79 GND 0.03888f
c9 63 GND 0.0103686f
c10 62 GND 0.02623f
c11 59 GND 0.00279f
c12 55 GND 0.00496f
c13 53 GND 0.00669414f
c14 47 GND 0.00775f
c15 42 GND 0.00496f
c16 40 GND 0.0161801f
c17 35 GND 0.0855285f
c18 34 GND 0.00775f
c19 28 GND 0.00669414f
c20 25 GND 0.00799552f
c21 22 GND 0.00248f
c22 18 GND 0.00799552f
c23 15 GND 0.00248f
c24 14 GND 0.0663199f
c25 12 GND 0.0184725f
c26 11 GND 0.164253f
c27 10 GND 0.04622f
c28 7 GND 0.0379243f
c29 3 GND 0.0229603f
r30 84 87 0.0460991
r31 84 85 8.58
r32 79 82 0.0460991
r33 62 67 6.90486
r34 62 66 6.90739
r35 61 63 0.0451795
r36 61 62 9.6
r37 56 76 4.99523
r38 55 58 0.0451595
r39 55 56 10.4
r40 47 49 0.0434463
r41 47 85 4.29
r42 43 74 4.99523
r43 42 45 0.0451595
r44 42 43 10.4
r45 40 45 0.464
r46 35 79 8.58
r47 34 36 0.0434463
r48 34 35 4.29
r49 32 59 0.00880368
r50 32 63 0.310667
r51 29 59 0.0338756
r52 29 53 0.192
r53 28 59 0.0338756
r54 28 58 0.192
r55 26 71 1.60714
r56 26 47 10.8
r57 25 49 0.12898
r58 25 26 10.8
r59 22 53 0.0436996
r60 22 25 2e-05
r61 19 68 1.60714
r62 19 34 10.8
r63 18 36 0.12898
r64 18 19 10.8
r65 15 40 0.0436996
r66 15 18 2e-05
r67 14 87 0.155167
r68 11 14 0.039111
r69 11 12 0.504
r70 10 12 0.039111
r71 10 82 0.151667
r72 7 67 48.3175
r73 3 66 34.0725
.ends

.subckt PM_HAMMINGLAY_X40.14 2 3 4 40 43 46 48
c16 37 GND 0.038232f
c17 36 GND 0.008091f
c18 31 GND 0.00799614f
c19 30 GND 0.07434f
c20 29 GND 0.00775f
c21 24 GND 0.0161801f
c22 21 GND 0.00973276f
c23 15 GND 0.00496f
c24 12 GND 0.0136388f
c25 9 GND 0.00248f
c26 6 GND 0.0564459f
c27 4 GND 4.56825e-20
c28 3 GND 0.164896f
c29 2 GND 0.169733f
r30 37 55 0.0461131
r31 36 37 4.29
r32 33 48 4.99523
r33 30 52 0.0460991
r34 29 33 10.4
r35 29 31 0.0527007
r36 29 30 4.29
r37 27 46 4.99523
r38 26 27 10.4
r39 22 43 1.60714
r40 22 36 10.8
r41 21 22 10.8
r42 19 36 0.0432421
r43 19 21 0.117
r44 18 26 0.0207899
r45 18 31 0.229333
r46 15 26 0.0239084
r47 15 24 0.464
r48 10 40 1.60714
r49 10 12 10.8
r50 9 24 0.0432372
r51 9 12 0.18
r52 9 10 10.8
r53 6 55 0.1225
r54 3 6 0.039111
r55 3 4 0.5005
r56 2 4 0.039111
r57 2 52 0.8155
.ends

.subckt PM_HAMMINGLAY_X40.15 3 4 40 43 46 48 51
c16 54 GND 0.0564459f
c17 51 GND 0.169733f
c18 39 GND 0.038232f
c19 33 GND 0.07434f
c20 31 GND 0.00799614f
c21 29 GND 0.00775f
c22 22 GND 0.00248f
c23 18 GND 0.00973276f
c24 16 GND 0.008091f
c25 13 GND 0.0211401f
c26 9 GND 0.0136388f
c27 4 GND 4.56825e-20
c28 3 GND 0.164896f
r29 39 54 0.0461271
r30 37 43 1.60714
r31 36 39 4.29
r32 36 37 10.8
r33 33 51 0.0461271
r34 30 48 4.99523
r35 29 33 4.29
r36 29 31 0.0527007
r37 29 30 10.4
r38 27 46 4.99523
r39 26 27 10.4
r40 22 24 0.0451595
r41 18 37 10.8
r42 16 36 0.0534888
r43 16 18 0.11702
r44 15 26 0.0207899
r45 15 31 0.229333
r46 13 26 0.0239084
r47 13 24 0.464
r48 10 40 1.60714
r49 10 22 10.8
r50 9 10 10.8
r51 7 22 2e-05
r52 7 9 0.17998
r53 5 54 0.1225
r54 3 5 0.039111
r55 3 4 0.5005
r56 1 4 0.039111
r57 1 51 0.8155
.ends

.subckt PM_HAMMINGLAY_X40.16 2 3 4 40 43 46 48
c16 37 GND 0.038232f
c17 36 GND 0.008091f
c18 31 GND 0.00799614f
c19 30 GND 0.07434f
c20 29 GND 0.00775f
c21 24 GND 0.0161801f
c22 21 GND 0.00973276f
c23 15 GND 0.00496f
c24 9 GND 0.0136388f
c25 7 GND 0.00248f
c26 6 GND 0.0564459f
c27 4 GND 4.56825e-20
c28 3 GND 0.164896f
c29 2 GND 0.169733f
r30 37 55 0.0460991
r31 36 37 4.29
r32 33 48 4.99523
r33 30 52 0.0460991
r34 29 33 10.4
r35 29 31 0.0527007
r36 29 30 4.29
r37 27 46 4.99523
r38 26 27 10.4
r39 22 43 1.60714
r40 22 36 10.8
r41 21 22 10.8
r42 19 36 0.0432579
r43 19 21 0.11698
r44 18 26 0.0207899
r45 18 31 0.229333
r46 15 26 0.0239084
r47 15 24 0.464
r48 10 40 1.60714
r49 10 12 10.8
r50 9 12 0.18
r51 9 10 10.8
r52 7 24 0.0432372
r53 7 9 2e-05
r54 6 55 0.1225
r55 3 6 0.039111
r56 3 4 0.5005
r57 2 4 0.039111
r58 2 52 0.8155
.ends

.subckt PM_HAMMINGLAY_X40.17 3 9 13 14 15 17 19 33 49 52 55 57
c18 63 GND 0.0470254f
c19 60 GND 0.0486859f
c20 44 GND 0.07434f
c21 43 GND 0.00775f
c22 41 GND 0.0157616f
c23 37 GND 0.00362514f
c24 36 GND 0.07434f
c25 35 GND 0.00775f
c26 33 GND 0.00248f
c27 25 GND 0.0136388f
c28 22 GND 0.00248f
c29 19 GND 0.00279f
c30 17 GND 0.0346871f
c31 15 GND 0.00279f
c32 14 GND 0.0151106f
c33 13 GND 0.00576414f
c34 9 GND 0.0136388f
c35 4 GND 0.03321f
c36 3 GND 0.530784f
r37 47 57 4.99523
r38 44 63 0.0461271
r39 43 48 0.0526847
r40 43 47 10.4
r41 43 44 4.29
r42 41 48 0.452
r43 39 55 4.99523
r44 36 60 0.0461271
r45 35 39 10.4
r46 35 37 0.0527007
r47 35 36 4.29
r48 31 33 0.0451795
r49 23 52 1.60714
r50 23 25 10.8
r51 22 41 0.0430468
r52 22 25 0.18
r53 22 23 10.8
r54 19 37 0.104
r55 16 19 0.0446983
r56 16 17 0.994667
r57 14 17 0.0446983
r58 14 15 0.353333
r59 13 15 0.0446983
r60 13 33 0.165333
r61 10 49 1.60714
r62 10 31 10.8
r63 9 31 0.18
r64 9 10 10.8
r65 5 63 0.0991667
r66 3 5 0.039111
r67 3 4 1.18883
r68 1 4 0.039111
r69 1 60 0.102667
.ends

.subckt PM_HAMMINGLAY_X40.18 3 7 9 17 18 20 22 30 49 52 55 57
c18 47 GND 0.07434f
c19 45 GND 0.0157616f
c20 43 GND 0.00775f
c21 39 GND 0.00248f
c22 34 GND 0.00362514f
c23 33 GND 0.07434f
c24 32 GND 0.00775f
c25 30 GND 0.00576414f
c26 25 GND 0.0136388f
c27 22 GND 0.00279f
c28 20 GND 0.0346871f
c29 18 GND 0.00279f
c30 17 GND 0.0151106f
c31 9 GND 0.0136388f
c32 7 GND 0.00248f
c33 6 GND 0.0470254f
c34 4 GND 0.03321f
c35 3 GND 0.530784f
c36 2 GND 0.0486859f
r37 47 64 0.0460991
r38 44 57 4.99523
r39 43 47 4.29
r40 43 45 0.0519167
r41 43 44 10.4
r42 41 45 0.452
r43 39 41 0.0451595
r44 36 55 4.99523
r45 33 61 0.0460991
r46 32 36 10.4
r47 32 34 0.0527007
r48 32 33 4.29
r49 26 52 1.60714
r50 26 39 10.8
r51 25 26 10.8
r52 23 39 2e-05
r53 23 25 0.17998
r54 22 34 0.104
r55 20 22 0.0446983
r56 19 20 0.994667
r57 17 19 0.0446983
r58 17 18 0.353333
r59 15 18 0.0446983
r60 15 30 0.165333
r61 10 49 1.60714
r62 10 12 10.8
r63 9 12 0.18
r64 9 10 10.8
r65 7 30 0.0430468
r66 7 9 2e-05
r67 6 64 0.0991667
r68 3 6 0.039111
r69 3 4 1.18883
r70 2 4 0.039111
r71 2 61 0.102667
.ends

.subckt PM_HAMMINGLAY_X40.19 3 9 13 14 15 17 19 31 49 52 55 57
c18 63 GND 0.0470254f
c19 60 GND 0.0486859f
c20 44 GND 0.07434f
c21 43 GND 0.00775f
c22 41 GND 0.0157616f
c23 37 GND 0.00362514f
c24 36 GND 0.07434f
c25 35 GND 0.00775f
c26 31 GND 0.00248f
c27 22 GND 0.0136388f
c28 20 GND 0.00248f
c29 19 GND 0.00279f
c30 17 GND 0.0346871f
c31 15 GND 0.00279f
c32 14 GND 0.0151106f
c33 13 GND 0.00576414f
c34 9 GND 0.0136388f
c35 4 GND 0.03321f
c36 3 GND 0.530784f
r37 47 57 4.99523
r38 44 63 0.0461271
r39 43 48 0.0526847
r40 43 47 10.4
r41 43 44 4.29
r42 41 48 0.452
r43 39 55 4.99523
r44 36 60 0.0461271
r45 35 39 10.4
r46 35 37 0.0527007
r47 35 36 4.29
r48 31 33 0.0451595
r49 23 52 1.60714
r50 23 25 10.8
r51 22 25 0.18
r52 22 23 10.8
r53 20 41 0.0430468
r54 20 22 2e-05
r55 19 37 0.104
r56 16 19 0.0446983
r57 16 17 0.994667
r58 14 17 0.0446983
r59 14 15 0.353333
r60 13 15 0.0446983
r61 13 33 0.165333
r62 10 49 1.60714
r63 10 31 10.8
r64 9 10 10.8
r65 7 31 2e-05
r66 7 9 0.17998
r67 5 63 0.0991667
r68 3 5 0.039111
r69 3 4 1.18883
r70 1 4 0.039111
r71 1 60 0.102667
.ends

.subckt PM_HAMMINGLAY_X40.20 3 7 11 15 18 19 20 22 65 68
c5 74 GND 0.0464719f
c6 58 GND 0.025585f
c7 56 GND 0.0374355f
c8 55 GND 9.1388e-19
c9 52 GND 0.026015f
c10 49 GND 0.00279f
c11 45 GND 0.00496f
c12 43 GND 0.00650814f
c13 39 GND 0.00774752f
c14 38 GND 0.06903f
c15 37 GND 0.00775f
c16 34 GND 0.0106476f
c17 31 GND 0.00688014f
c18 28 GND 0.00248f
c19 24 GND 0.03321f
c20 22 GND 0.277835f
c21 20 GND 0.03321f
c22 19 GND 0.292779f
c23 18 GND 0.0564349f
c24 15 GND 0.0372363f
c25 11 GND 0.0236483f
c26 7 GND 0.0378383f
c27 3 GND 0.0230463f
r28 58 64 6.87281
r29 58 63 6.87281
r30 56 74 0.0461131
r31 55 58 9.6
r32 55 56 4.29
r33 52 61 6.89484
r34 52 60 6.89484
r35 51 52 9.6
r36 46 68 4.99523
r37 45 48 0.0451595
r38 45 46 10.4
r39 38 72 0.0461131
r40 37 39 0.0434303
r41 37 38 4.29
r42 35 49 0.00880368
r43 34 51 0.0451795
r44 34 35 0.318667
r45 32 49 0.0338756
r46 32 43 0.186667
r47 31 49 0.0338756
r48 31 48 0.197333
r49 29 65 1.60714
r50 29 37 10.8
r51 28 43 0.043453
r52 28 39 0.125
r53 28 29 10.8
r54 24 74 0.098
r55 21 24 0.039111
r56 21 22 0.585667
r57 19 22 0.039111
r58 19 20 0.617167
r59 18 20 0.039111
r60 18 72 0.119
r61 15 64 46.7775
r62 11 63 35.6125
r63 7 61 48.125
r64 3 60 34.265
.ends

.subckt PM_HAMMINGLAY_X40.21 3 7 11 15 19 20 22 65 68 71
c5 74 GND 0.0464719f
c6 71 GND 0.0564349f
c7 58 GND 0.025585f
c8 56 GND 0.0374355f
c9 55 GND 9.1388e-19
c10 52 GND 0.026015f
c11 49 GND 0.00279f
c12 47 GND 0.00688014f
c13 45 GND 0.00496f
c14 41 GND 0.00248f
c15 38 GND 0.06903f
c16 34 GND 0.00775f
c17 31 GND 0.0106476f
c18 28 GND 0.00650814f
c19 26 GND 0.00774752f
c20 24 GND 0.03321f
c21 22 GND 0.277835f
c22 20 GND 0.03321f
c23 19 GND 0.292779f
c24 15 GND 0.0236483f
c25 11 GND 0.0372363f
c26 7 GND 0.0230463f
c27 3 GND 0.0378383f
r28 58 64 6.87152
r29 58 63 6.87411
r30 56 74 0.0461131
r31 55 58 9.6
r32 55 56 4.29
r33 52 61 6.89357
r34 52 60 6.89612
r35 51 52 9.6
r36 46 68 4.99523
r37 45 47 0.0451995
r38 45 46 10.4
r39 41 43 0.0451595
r40 38 71 0.0461271
r41 35 65 1.60714
r42 35 41 10.8
r43 34 39 0.0474143
r44 34 38 4.29
r45 34 35 10.8
r46 32 49 0.00880368
r47 31 51 0.0451795
r48 31 32 0.318667
r49 29 49 0.0338756
r50 29 47 0.197333
r51 28 49 0.0338756
r52 28 43 0.186667
r53 26 41 2e-05
r54 26 39 0.125
r55 24 74 0.098
r56 22 24 0.039111
r57 21 22 0.585667
r58 19 21 0.039111
r59 19 20 0.617167
r60 17 20 0.039111
r61 17 71 0.119
r62 15 64 35.6125
r63 11 63 46.7775
r64 7 61 34.265
r65 3 60 48.125
.ends

.subckt PM_HAMMINGLAY_X40.22 3 7 11 15 18 19 20 22 65 68
c5 74 GND 0.0464719f
c6 58 GND 0.025585f
c7 56 GND 0.0374355f
c8 55 GND 9.1388e-19
c9 52 GND 0.026015f
c10 49 GND 0.00279f
c11 45 GND 0.00496f
c12 43 GND 0.00650814f
c13 38 GND 0.06903f
c14 37 GND 0.00775f
c15 34 GND 0.0106476f
c16 31 GND 0.00688014f
c17 28 GND 0.00774752f
c18 25 GND 0.00248f
c19 24 GND 0.03321f
c20 22 GND 0.277835f
c21 20 GND 0.03321f
c22 19 GND 0.292779f
c23 18 GND 0.0564349f
c24 15 GND 0.0372363f
c25 11 GND 0.0236483f
c26 7 GND 0.0378383f
c27 3 GND 0.0230463f
r28 58 64 6.87152
r29 58 63 6.87411
r30 56 74 0.0461131
r31 55 58 9.6
r32 55 56 4.29
r33 52 61 6.89357
r34 52 60 6.89612
r35 51 52 9.6
r36 46 68 4.99523
r37 45 48 0.0451595
r38 45 46 10.4
r39 38 72 0.0460991
r40 37 39 0.0434463
r41 37 38 4.29
r42 35 49 0.00880368
r43 34 51 0.0451795
r44 34 35 0.318667
r45 32 49 0.0338756
r46 32 43 0.186667
r47 31 49 0.0338756
r48 31 48 0.197333
r49 29 65 1.60714
r50 29 37 10.8
r51 28 39 0.12498
r52 28 29 10.8
r53 25 43 0.043453
r54 25 28 2e-05
r55 24 74 0.098
r56 21 24 0.039111
r57 21 22 0.585667
r58 19 22 0.039111
r59 19 20 0.617167
r60 18 20 0.039111
r61 18 72 0.119
r62 15 64 46.7775
r63 11 63 35.6125
r64 7 61 48.125
r65 3 60 34.265
.ends

.subckt PM_HAMMINGLAY_X40.23 2 3 4 40 43 46 48
c16 37 GND 0.038232f
c17 36 GND 0.008091f
c18 31 GND 0.00799614f
c19 30 GND 0.07434f
c20 29 GND 0.00775f
c21 24 GND 0.0161801f
c22 21 GND 0.00973276f
c23 15 GND 0.00496f
c24 12 GND 0.0136388f
c25 9 GND 0.00248f
c26 6 GND 0.0569994f
c27 4 GND 0.0173704f
c28 3 GND 0.165068f
c29 2 GND 0.17015f
r30 37 55 0.0461131
r31 36 37 4.29
r32 33 48 4.99523
r33 30 52 0.0460991
r34 29 33 10.4
r35 29 31 0.0527007
r36 29 30 4.29
r37 27 46 4.99523
r38 26 27 10.4
r39 22 43 1.60714
r40 22 36 10.8
r41 21 22 10.8
r42 19 36 0.0432421
r43 19 21 0.117
r44 18 26 0.0207899
r45 18 31 0.229333
r46 15 26 0.0239084
r47 15 24 0.464
r48 10 40 1.60714
r49 10 12 10.8
r50 9 24 0.0432372
r51 9 12 0.18
r52 9 10 10.8
r53 6 55 0.123667
r54 3 6 0.039111
r55 3 4 0.509833
r56 2 4 0.039111
r57 2 52 0.816667
.ends

.subckt PM_HAMMINGLAY_X40.24 3 4 40 43 46 48 51
c16 54 GND 0.0569994f
c17 51 GND 0.17015f
c18 39 GND 0.038232f
c19 33 GND 0.07434f
c20 31 GND 0.00799614f
c21 29 GND 0.00775f
c22 22 GND 0.00248f
c23 18 GND 0.00973276f
c24 16 GND 0.008091f
c25 13 GND 0.0211401f
c26 9 GND 0.0136388f
c27 4 GND 0.0173704f
c28 3 GND 0.165068f
r29 39 54 0.0461271
r30 37 43 1.60714
r31 36 39 4.29
r32 36 37 10.8
r33 33 51 0.0461271
r34 30 48 4.99523
r35 29 33 4.29
r36 29 31 0.0527007
r37 29 30 10.4
r38 27 46 4.99523
r39 26 27 10.4
r40 22 24 0.0451595
r41 18 37 10.8
r42 16 36 0.0534888
r43 16 18 0.11702
r44 15 26 0.0207899
r45 15 31 0.229333
r46 13 26 0.0239084
r47 13 24 0.464
r48 10 40 1.60714
r49 10 22 10.8
r50 9 10 10.8
r51 7 22 2e-05
r52 7 9 0.17998
r53 5 54 0.123667
r54 3 5 0.039111
r55 3 4 0.509833
r56 1 4 0.039111
r57 1 51 0.816667
.ends

.subckt PM_HAMMINGLAY_X40.25 2 3 4 40 43 46 48
c16 37 GND 0.038232f
c17 36 GND 0.008091f
c18 31 GND 0.00799614f
c19 30 GND 0.07434f
c20 29 GND 0.00775f
c21 24 GND 0.0161801f
c22 21 GND 0.00973276f
c23 15 GND 0.00496f
c24 9 GND 0.0136388f
c25 7 GND 0.00248f
c26 6 GND 0.0569994f
c27 4 GND 0.0173704f
c28 3 GND 0.165068f
c29 2 GND 0.17015f
r30 37 55 0.0460991
r31 36 37 4.29
r32 33 48 4.99523
r33 30 52 0.0460991
r34 29 33 10.4
r35 29 31 0.0527007
r36 29 30 4.29
r37 27 46 4.99523
r38 26 27 10.4
r39 22 43 1.60714
r40 22 36 10.8
r41 21 22 10.8
r42 19 36 0.0432579
r43 19 21 0.11698
r44 18 26 0.0207899
r45 18 31 0.229333
r46 15 26 0.0239084
r47 15 24 0.464
r48 10 40 1.60714
r49 10 12 10.8
r50 9 12 0.18
r51 9 10 10.8
r52 7 24 0.0432372
r53 7 9 2e-05
r54 6 55 0.123667
r55 3 6 0.039111
r56 3 4 0.509833
r57 2 4 0.039111
r58 2 52 0.816667
.ends

.subckt PM_HAMMINGLAY_X40.26 3 9 13 14 15 17 19 33 49 52 55 57
c18 63 GND 0.0470254f
c19 60 GND 0.0486859f
c20 44 GND 0.07434f
c21 43 GND 0.00775f
c22 41 GND 0.0157616f
c23 37 GND 0.00362514f
c24 36 GND 0.07434f
c25 35 GND 0.00775f
c26 33 GND 0.00248f
c27 25 GND 0.0136388f
c28 22 GND 0.00248f
c29 19 GND 0.00279f
c30 17 GND 0.0346871f
c31 15 GND 0.00279f
c32 14 GND 0.0151106f
c33 13 GND 0.00576414f
c34 9 GND 0.0136388f
c35 4 GND 0.03321f
c36 3 GND 0.530784f
r37 47 57 4.99523
r38 44 63 0.0461271
r39 43 48 0.0526847
r40 43 47 10.4
r41 43 44 4.29
r42 41 48 0.452
r43 39 55 4.99523
r44 36 60 0.0461271
r45 35 39 10.4
r46 35 37 0.0527007
r47 35 36 4.29
r48 31 33 0.0451795
r49 23 52 1.60714
r50 23 25 10.8
r51 22 41 0.0430468
r52 22 25 0.18
r53 22 23 10.8
r54 19 37 0.104
r55 16 19 0.0446983
r56 16 17 0.994667
r57 14 17 0.0446983
r58 14 15 0.353333
r59 13 15 0.0446983
r60 13 33 0.165333
r61 10 49 1.60714
r62 10 31 10.8
r63 9 31 0.18
r64 9 10 10.8
r65 5 63 0.0991667
r66 3 5 0.039111
r67 3 4 1.18883
r68 1 4 0.039111
r69 1 60 0.102667
.ends

.subckt PM_HAMMINGLAY_X40.27 3 7 9 17 18 20 22 30 49 52 55 57
c18 47 GND 0.07434f
c19 45 GND 0.0157616f
c20 43 GND 0.00775f
c21 39 GND 0.00248f
c22 34 GND 0.00362514f
c23 33 GND 0.07434f
c24 32 GND 0.00775f
c25 30 GND 0.00576414f
c26 25 GND 0.0136388f
c27 22 GND 0.00279f
c28 20 GND 0.0346871f
c29 18 GND 0.00279f
c30 17 GND 0.0151106f
c31 9 GND 0.0136388f
c32 7 GND 0.00248f
c33 6 GND 0.0470254f
c34 4 GND 0.03321f
c35 3 GND 0.530784f
c36 2 GND 0.0486859f
r37 47 64 0.0460991
r38 44 57 4.99523
r39 43 47 4.29
r40 43 45 0.0519167
r41 43 44 10.4
r42 41 45 0.452
r43 39 41 0.0451595
r44 36 55 4.99523
r45 33 61 0.0460991
r46 32 36 10.4
r47 32 34 0.0527007
r48 32 33 4.29
r49 26 52 1.60714
r50 26 39 10.8
r51 25 26 10.8
r52 23 39 2e-05
r53 23 25 0.17998
r54 22 34 0.104
r55 20 22 0.0446983
r56 19 20 0.994667
r57 17 19 0.0446983
r58 17 18 0.353333
r59 15 18 0.0446983
r60 15 30 0.165333
r61 10 49 1.60714
r62 10 12 10.8
r63 9 12 0.18
r64 9 10 10.8
r65 7 30 0.0430468
r66 7 9 2e-05
r67 6 64 0.0991667
r68 3 6 0.039111
r69 3 4 1.18883
r70 2 4 0.039111
r71 2 61 0.102667
.ends

.subckt PM_HAMMINGLAY_X40.28 3 9 13 14 15 17 31 49 52 55 57
c17 63 GND 0.0470254f
c18 60 GND 0.0486859f
c19 44 GND 0.07434f
c20 43 GND 0.00775f
c21 41 GND 0.0157616f
c22 37 GND 0.00362514f
c23 36 GND 0.07434f
c24 35 GND 0.00775f
c25 31 GND 0.00248f
c26 22 GND 0.0136388f
c27 20 GND 0.00248f
c28 19 GND 0.00279f
c29 17 GND 0.0346871f
c30 15 GND 0.00279f
c31 14 GND 0.0151106f
c32 13 GND 0.00576414f
c33 9 GND 0.0136388f
c34 4 GND 0.03321f
c35 3 GND 0.530784f
r36 47 57 4.99523
r37 44 63 0.0461271
r38 43 48 0.0526847
r39 43 47 10.4
r40 43 44 4.29
r41 41 48 0.452
r42 39 55 4.99523
r43 36 60 0.0461271
r44 35 39 10.4
r45 35 37 0.0527007
r46 35 36 4.29
r47 31 33 0.0451595
r48 23 52 1.60714
r49 23 25 10.8
r50 22 25 0.18
r51 22 23 10.8
r52 20 41 0.0430468
r53 20 22 2e-05
r54 19 37 0.104
r55 16 19 0.0446983
r56 16 17 0.994667
r57 14 17 0.0446983
r58 14 15 0.353333
r59 13 15 0.0446983
r60 13 33 0.165333
r61 10 49 1.60714
r62 10 31 10.8
r63 9 10 10.8
r64 7 31 2e-05
r65 7 9 0.17998
r66 5 63 0.0991667
r67 3 5 0.039111
r68 3 4 1.18883
r69 1 4 0.039111
r70 1 60 0.102667
.ends

.subckt PM_HAMMINGLAY_CLK 3 7 11 15 19 23 27 31 35 39 43 47 51 52 53 57 59 61 63
+ 65 67 71 73 79 80 81 82 83 90 92 94 127 128 131 132 135 136 159 164 169 174
+ 179 184 238 242 245 246 248 269
c79 275 GND 0.08262f
c80 270 GND 0.327774f
c81 269 GND 0.05292f
c82 264 GND 0.02795f
c83 257 GND 0.00753207f
c84 256 GND 0.09027f
c85 255 GND 0.00775f
c86 251 GND 0.016137f
c87 250 GND 0.02322f
c88 248 GND 0.517268f
c89 246 GND 0.178269f
c90 245 GND 0.295099f
c91 242 GND 0.0195203f
c92 236 GND 0.0346563f
c93 207 GND 0.0588173f
c94 192 GND 0.0260269f
c95 184 GND 0.359078f
c96 183 GND 0.0588173f
c97 182 GND 0.026649f
c98 179 GND 0.359078f
c99 177 GND 0.026649f
c100 174 GND 0.359078f
c101 173 GND 0.0588173f
c102 172 GND 0.026649f
c103 169 GND 0.040248f
c104 168 GND 0.0260269f
c105 167 GND 0.017955f
c106 164 GND 0.040248f
c107 162 GND 0.017955f
c108 159 GND 0.040248f
c109 158 GND 0.0260269f
c110 157 GND 0.017955f
c111 136 GND 0.026015f
c112 132 GND 0.026015f
c113 128 GND 0.026015f
c114 124 GND 0.0223181f
c115 123 GND 0.0908385f
c116 122 GND 0.00775f
c117 118 GND 0.0908385f
c118 117 GND 0.00775f
c119 114 GND 0.0223181f
c120 113 GND 0.0908385f
c121 112 GND 0.00775f
c122 110 GND 0.02623f
c123 108 GND 0.055224f
c124 107 GND 0.00119823f
c125 105 GND 0.02623f
c126 103 GND 0.055224f
c127 102 GND 0.00119823f
c128 100 GND 0.02623f
c129 98 GND 0.055224f
c130 97 GND 0.00119823f
c131 95 GND 0.00279f
c132 94 GND 0.00460257f
c133 93 GND 0.00279f
c134 92 GND 0.00460257f
c135 91 GND 0.00279f
c136 90 GND 0.00460257f
c137 87 GND 0.0223181f
c138 83 GND 0.0117462f
c139 82 GND 0.0117444f
c140 81 GND 0.0117462f
c141 80 GND 0.0157833f
c142 67 GND 0.0961568f
c143 65 GND 0.10674f
c144 63 GND 0.0961568f
c145 61 GND 0.115649f
c146 59 GND 0.0961568f
c147 57 GND 0.104031f
c148 54 GND 0.0232079f
c149 53 GND 0.372279f
c150 52 GND 0.324581f
c151 51 GND 0.346737f
c152 47 GND 0.0377523f
c153 43 GND 0.0231323f
c154 39 GND 0.0231323f
c155 35 GND 0.0377523f
c156 31 GND 0.0377523f
c157 27 GND 0.0231323f
c158 23 GND 0.0380963f
c159 19 GND 0.0227883f
c160 15 GND 0.0227883f
c161 11 GND 0.0380963f
c162 7 GND 0.0380963f
c163 3 GND 0.0227883f
r164 269 275 13.16
r165 269 270 0.0503007
r166 261 264 4.62
r167 260 263 0.0451795
r168 260 261 9.6
r169 257 263 0.229333
r170 256 275 8.58
r171 255 257 0.0527007
r172 255 256 4.29
r173 250 270 1.12933
r174 248 250 0.0446983
r175 247 251 0.0338756
r176 247 248 2.09333
r177 246 251 0.00880368
r178 245 251 0.0338756
r179 244 246 1.264
r180 240 264 3.88059
r181 240 242 26.3725
r182 236 264 3.88059
r183 236 238 41.0025
r184 182 184 0.0527007
r185 182 183 13.16
r186 177 179 0.0527007
r187 177 207 13.16
r188 172 174 0.0527007
r189 172 173 13.16
r190 167 169 0.0527007
r191 167 168 13.16
r192 162 164 0.0527007
r193 162 192 13.16
r194 157 159 0.0527007
r195 157 158 13.16
r196 136 155 6.89357
r197 136 154 6.89612
r198 135 136 9.6
r199 132 152 6.89357
r200 132 151 6.89612
r201 131 132 9.6
r202 128 149 6.89484
r203 128 148 6.89484
r204 127 128 9.6
r205 123 183 8.58
r206 122 124 0.0527167
r207 122 123 4.29
r208 118 207 8.58
r209 117 120 0.0526847
r210 117 118 4.29
r211 113 173 8.58
r212 112 114 0.0527007
r213 112 113 4.29
r214 110 146 6.90486
r215 110 145 6.90739
r216 108 168 8.58
r217 107 110 9.6
r218 107 108 4.29
r219 105 143 6.90486
r220 105 142 6.90739
r221 103 192 8.58
r222 102 105 9.6
r223 102 103 4.29
r224 100 140 6.90613
r225 100 139 6.90613
r226 98 158 8.58
r227 97 100 9.6
r228 97 98 4.29
r229 94 135 0.0451795
r230 94 95 0.145333
r231 92 131 0.0451795
r232 92 93 0.145333
r233 90 127 0.0451795
r234 90 91 0.145333
r235 88 95 0.0446983
r236 88 124 0.64
r237 87 93 0.0446983
r238 87 120 0.64
r239 84 91 0.0446983
r240 84 114 0.64
r241 80 244 0.00880368
r242 79 184 2.26133
r243 77 83 0.00880368
r244 77 169 0.142667
r245 75 82 0.00880368
r246 75 164 0.142667
r247 73 179 2.26133
r248 71 174 2.26133
r249 69 81 0.00880368
r250 69 159 0.142667
r251 67 79 0.0446983
r252 66 83 0.0338756
r253 66 67 0.677333
r254 65 83 0.0338756
r255 64 65 0.513333
r256 63 82 0.0338756
r257 62 73 0.0446983
r258 62 63 0.677333
r259 61 80 0.0338756
r260 60 82 0.0338756
r261 60 61 0.901333
r262 59 71 0.0446983
r263 58 81 0.0338756
r264 58 59 0.677333
r265 57 81 0.0338756
r266 56 80 0.0338756
r267 56 57 0.504
r268 53 64 0.0446983
r269 53 54 1.28267
r270 52 245 1.27467
r271 51 52 1.27467
r272 49 54 0.0457272
r273 49 51 1.27467
r274 47 155 47.9325
r275 43 154 34.4575
r276 39 152 34.4575
r277 35 151 47.9325
r278 31 149 47.9325
r279 27 148 34.4575
r280 23 146 48.7025
r281 19 145 33.6875
r282 15 143 33.6875
r283 11 142 48.7025
r284 7 140 48.7025
r285 3 139 33.6875
.ends

.subckt PM_HAMMINGLAY_S1 2 3 5 31 34
c10 42 GND 0.0470915f
c11 37 GND 0.025137f
c12 29 GND 0.00413664f
c13 27 GND 0.00496f
c14 24 GND 0.0663231f
c15 20 GND 0.0099975f
c16 19 GND 0.00248f
c17 17 GND 0.0136388f
c18 12 GND 0.00362514f
c19 5 GND 0.53466f
c20 2 GND 0.0355963f
r21 37 40 0.0527007
r22 37 42 13.16
r23 28 34 4.99523
r24 27 29 0.0451795
r25 27 28 10.4
r26 24 42 8.58
r27 23 24 4.29
r28 20 23 0.0392
r29 17 19 0.0451795
r30 15 20 0.024431
r31 15 29 0.118667
r32 12 20 0.024431
r33 12 19 0.104
r34 10 31 1.60714
r35 10 17 10.8
r36 9 17 0.18
r37 9 10 10.8
r38 3 5 2.496
r39 2 3 0.0446983
r40 2 40 0.168
.ends

.subckt PM_HAMMINGLAY_IN1 1 3 7 46 53 56 59 73
c9 73 GND 0.142529f
c10 66 GND 0.0908385f
c11 65 GND 0.05832f
c12 59 GND 0.04536f
c13 49 GND 0.028595f
c14 48 GND 0.00348564f
c15 46 GND 0.0355241f
c16 44 GND 0.00775f
c17 39 GND 0.066906f
c18 38 GND 0.01054f
c19 35 GND 0.0358425f
c20 31 GND 1.49668e-19
c21 29 GND 0.00496f
c22 22 GND 0.0136388f
c23 19 GND 0.00248f
c24 11 GND 0.00427614f
c25 7 GND 0.0339683f
c26 1 GND 0.0199503f
r27 73 77 0.6685
r28 65 66 8.58
r29 59 65 13.16
r30 44 46 0.0527007
r31 44 66 4.29
r32 39 77 0.0461131
r33 38 41 0.0448
r34 38 39 4.29
r35 36 46 1.01867
r36 35 73 0.0461131
r37 32 49 4.851
r38 31 36 0.0535007
r39 31 35 4.29
r40 31 32 9.6
r41 27 56 4.99523
r42 26 29 0.0451795
r43 26 27 10.4
r44 20 53 1.60714
r45 20 22 10.8
r46 19 48 0.0436996
r47 19 22 0.18
r48 19 20 10.8
r49 16 41 0.024431
r50 16 48 0.1
r51 11 41 0.024431
r52 11 29 0.122667
r53 5 49 3.88059
r54 5 7 39.4625
r55 1 49 3.88059
r56 1 3 27.335
.ends

.subckt PM_HAMMINGLAY_IN2 3 6 9 20 53 57
c1 71 GND 0.198671f
c2 68 GND 0.043053f
c3 66 GND 0.0832178f
c4 57 GND 0.06426f
c5 47 GND 0.0144448f
c6 45 GND 0.00775f
c7 42 GND 0.0215f
c8 39 GND 0.028521f
c9 38 GND 2.0057e-19
c10 35 GND 0.0215f
c11 31 GND 2.0057e-19
c12 20 GND 0.421745f
c13 19 GND 0.08262f
c14 18 GND 0.09402f
c15 14 GND 0.24738f
c16 7 GND 0.0333663f
c17 1 GND 0.0632943f
r18 66 67 0.00140337
r19 46 66 0.0498196
r20 45 47 0.0434303
r21 45 46 4.29
r22 39 72 0.0460831
r23 39 71 0.0460831
r24 38 42 9.6
r25 38 39 4.29
r26 32 68 0.0170178
r27 31 35 9.6
r28 31 32 4.29
r29 28 47 0.013
r30 25 53 1.60714
r31 25 28 10.8
r32 24 28 0.18
r33 24 25 10.8
r34 19 57 13.16