* File: dhallsipolay_pex.sp.pex
* Created: Sat Oct 28 12:27:26 2017
* Program "Calibre xRC"
* Version "v2013.4_37.29"
* Nominal Temperature: 27C
* Circuit Temperature: 27C
* 
.subckt PM_DHALLSIPOLAY_IN 3 7 28
c0 28 GND 0.027027f
c1 26 GND 0.0600867f
c2 19 GND 0.0141351f
c3 18 GND 0.025585f
c4 15 GND 0.00775f
c5 13 GND 0.0913846f
c6 7 GND 0.0372363f
c7 3 GND 0.0236483f
r8 26 28 13.16
r9 18 23 6.87281
r10 18 22 6.87281
r11 17 19 0.0451795
r12 17 18 9.6
r13 15 19 0.418667
r14 13 26 8.58
r15 12 15 0.0527007
r16 12 13 4.29
r17 7 23 46.7775
r18 3 22 35.6125
.ends

.subckt PM_DHALLSIPOLAY_CLK 3 7 11 15 19 23 27 31 35 39 43 47 52 54 55 57 60 62
+ 64 66 68 70 74 76 82 86 89 90 91 92 99 101 103 136 137 140 141 144 145 168 173
+ 178 183 188 193
c72 216 GND 0.0588173f
c73 201 GND 0.0260269f
c74 193 GND 0.359078f
c75 192 GND 0.0588173f
c76 191 GND 0.026649f
c77 188 GND 0.359078f
c78 186 GND 0.026649f
c79 183 GND 0.359078f
c80 182 GND 0.0588173f
c81 181 GND 0.026649f
c82 178 GND 0.040248f
c83 177 GND 0.0260269f
c84 176 GND 0.017955f
c85 173 GND 0.040248f
c86 171 GND 0.017955f
c87 168 GND 0.040248f
c88 167 GND 0.0260269f
c89 166 GND 0.017955f
c90 145 GND 0.026015f
c91 141 GND 0.026015f
c92 137 GND 0.026015f
c93 133 GND 0.0223181f
c94 132 GND 0.0908385f
c95 131 GND 0.00775f
c96 127 GND 0.0908385f
c97 126 GND 0.00775f
c98 123 GND 0.0223181f
c99 122 GND 0.0908385f
c100 121 GND 0.00775f
c101 119 GND 0.02623f
c102 117 GND 0.055224f
c103 116 GND 0.00119823f
c104 114 GND 0.02623f
c105 112 GND 0.055224f
c106 111 GND 0.00119823f
c107 109 GND 0.02623f
c108 107 GND 0.055224f
c109 106 GND 0.00119823f
c110 104 GND 0.00279f
c111 103 GND 0.00460257f
c112 102 GND 0.00279f
c113 101 GND 0.00460257f
c114 100 GND 0.00279f
c115 99 GND 0.00460257f
c116 96 GND 0.0223181f
c117 92 GND 0.0117462f
c118 91 GND 0.0117444f
c119 90 GND 0.0117462f
c120 89 GND 0.0157833f
c121 88 GND 0.01188f
c122 83 GND 0.0602652f
c123 70 GND 0.0961568f
c124 68 GND 0.10674f
c125 66 GND 0.0961568f
c126 64 GND 0.115649f
c127 62 GND 0.0961568f
c128 60 GND 0.104031f
c129 57 GND 0.174399f
c130 56 GND 0.027477f
c131 55 GND 0.366861f
c132 54 GND 0.280575f
c133 53 GND 0.369957f
c134 52 GND 0.325466f
c135 49 GND 0.0603565f
c136 47 GND 0.0377523f
c137 43 GND 0.0231323f
c138 39 GND 0.0231323f
c139 35 GND 0.0377523f
c140 31 GND 0.0377523f
c141 27 GND 0.0231323f
c142 23 GND 0.0380963f
c143 19 GND 0.0227883f
c144 15 GND 0.0227883f
c145 11 GND 0.0380963f
c146 7 GND 0.0380963f
c147 3 GND 0.0227883f
r148 191 193 0.0527007
r149 191 192 13.16
r150 186 188 0.0527007
r151 186 216 13.16
r152 181 183 0.0527007
r153 181 182 13.16
r154 176 178 0.0527007
r155 176 177 13.16
r156 171 173 0.0527007
r157 171 201 13.16
r158 166 168 0.0527007
r159 166 167 13.16
r160 145 164 6.89357
r161 145 163 6.89612
r162 144 145 9.6
r163 141 161 6.89357
r164 141 160 6.89612
r165 140 141 9.6
r166 137 158 6.89484
r167 137 157 6.89484
r168 136 137 9.6
r169 132 192 8.58
r170 131 133 0.0527167
r171 131 132 4.29
r172 127 216 8.58
r173 126 129 0.0526847
r174 126 127 4.29
r175 122 182 8.58
r176 121 123 0.0527007
r177 121 122 4.29
r178 119 155 6.90486
r179 119 154 6.90739
r180 117 177 8.58
r181 116 119 9.6
r182 116 117 4.29
r183 114 152 6.90486
r184 114 151 6.90739
r185 112 201 8.58
r186 111 114 9.6
r187 111 112 4.29
r188 109 149 6.90613
r189 109 148 6.90613
r190 107 167 8.58
r191 106 109 9.6
r192 106 107 4.29
r193 103 144 0.0451795
r194 103 104 0.145333
r195 101 140 0.0451795
r196 101 102 0.145333
r197 99 136 0.0451795
r198 99 100 0.145333
r199 97 104 0.0446983
r200 97 133 0.64
r201 96 102 0.0446983
r202 96 129 0.64
r203 93 100 0.0446983
r204 93 123 0.64
r205 83 86 0.00170213
r206 82 193 2.26133
r207 80 92 0.00880368
r208 80 178 0.142667
r209 78 91 0.00880368
r210 78 173 0.142667
r211 76 188 2.26133
r212 74 183 2.26133
r213 72 90 0.00880368
r214 72 168 0.142667
r215 70 82 0.0446983
r216 69 92 0.0338756
r217 69 70 0.677333
r218 68 92 0.0338756
r219 67 68 0.513333
r220 66 91 0.0338756
r221 65 76 0.0446983
r222 65 66 0.677333
r223 64 89 0.0338756
r224 63 91 0.0338756
r225 63 64 0.901333
r226 62 74 0.0446983
r227 61 90 0.0338756
r228 61 62 0.677333
r229 60 90 0.0338756
r230 59 89 0.0338756
r231 59 60 0.504
r232 58 88 0.0338756
r233 57 89 0.00880368
r234 57 58 1.25067
r235 55 67 0.0446983
r236 55 56 1.264
r237 53 54 1.27467
r238 52 88 0.00880368
r239 52 54 1.27467
r240 51 56 0.0446983
r241 51 53 1.27467
r242 50 83 0.0220599
r243 49 88 0.0338756
r244 49 50 0.208
r245 47 164 47.9325
r246 43 163 34.4575
r247 39 161 34.4575
r248 35 160 47.9325
r249 31 158 47.9325
r250 27 157 34.4575
r251 23 155 48.7025
r252 19 154 33.6875
r253 15 152 33.6875
r254 11 151 48.7025
r255 7 149 48.7025
r256 3 148 33.6875
.ends

.subckt PM_DHALLSIPOLAY_:CLK 3 7 11 15 19 23 27 31 35 39 43 47 57 60 61 62 63 64
+ 65 68 70 72 74 76 78 84 86 89 91 92 118 119 120 123 124 125 128 129 130 168
+ 184 189 194
c53 215 GND 0.0491487f
c54 207 GND 0.036936f
c55 202 GND 0.036936f
c56 197 GND 0.036936f
c57 194 GND 0.038313f
c58 193 GND 0.0491487f
c59 192 GND 0.019278f
c60 189 GND 0.038313f
c61 187 GND 0.019278f
c62 184 GND 0.038313f
c63 183 GND 0.0491487f
c64 182 GND 0.019278f
c65 177 GND 0.017388f
c66 174 GND 0.0344275f
c67 172 GND 0.017388f
c68 169 GND 0.017388f
c69 168 GND 0.159049f
c70 146 GND 0.02623f
c71 144 GND 0.057879f
c72 143 GND 0.0015221f
c73 141 GND 0.02623f
c74 139 GND 0.057879f
c75 138 GND 0.0015221f
c76 136 GND 0.02623f
c77 134 GND 0.057879f
c78 133 GND 0.0015221f
c79 130 GND 0.00413757f
c80 129 GND 0.026015f
c81 125 GND 0.00413757f
c82 124 GND 0.026015f
c83 120 GND 0.00413757f
c84 119 GND 0.026015f
c85 115 GND 0.0674411f
c86 114 GND 0.00788795f
c87 111 GND 0.0674411f
c88 110 GND 0.00788795f
c89 107 GND 0.0674411f
c90 106 GND 0.00788795f
c91 104 GND 0.00279f
c92 102 GND 0.00279f
c93 100 GND 0.00279f
c94 98 GND 0.0218066f
c95 96 GND 0.0218066f
c96 94 GND 0.0218066f
c97 92 GND 0.012105f
c98 91 GND 0.0118794f
c99 90 GND 0.014202f
c100 89 GND 0.013239f
c101 86 GND 0.0602652f
c102 84 GND 0.015696f
c103 78 GND 0.122055f
c104 76 GND 0.243682f
c105 74 GND 0.122055f
c106 72 GND 0.00231426f
c107 70 GND 0.122055f
c108 68 GND 0.296442f
c109 67 GND 0.342867f
c110 66 GND 0.02322f
c111 65 GND 0.319647f
c112 64 GND 0.1517f
c113 63 GND 0.175415f
c114 62 GND 0.011484f
c115 61 GND 0.163561f
c116 60 GND 0.297216f
c117 59 GND 0.343641f
c118 58 GND 0.02322f
c119 57 GND 0.343641f
c120 56 GND 0.0344275f
c121 52 GND 0.0344275f
c122 47 GND 0.0380963f
c123 43 GND 0.0227883f
c124 39 GND 0.0227883f
c125 35 GND 0.0380963f
c126 31 GND 0.0380963f
c127 27 GND 0.0227883f
c128 23 GND 0.0377523f
c129 19 GND 0.0231323f
c130 15 GND 0.0231323f
c131 11 GND 0.0377523f
c132 7 GND 0.0377523f
c133 3 GND 0.0231323f
r134 192 194 0.0527007
r135 192 193 13.16
r136 187 189 0.0527007
r137 187 215 13.16
r138 182 184 0.0527007
r139 182 183 13.16
r140 177 180 0.0526847
r141 177 207 13.16
r142 172 174 0.0527167
r143 172 202 13.16
r144 166 169 0.0008
r145 166 168 0.0527007
r146 166 197 13.16
r147 146 164 6.90486
r148 146 163 6.90739
r149 144 193 8.58
r150 143 146 9.6
r151 143 144 4.29
r152 141 161 6.90486
r153 141 160 6.90739
r154 139 215 8.58
r155 138 141 9.6
r156 138 139 4.29
r157 136 158 6.90613
r158 136 157 6.90613
r159 134 183 8.58
r160 133 136 9.6
r161 133 134 4.29
r162 129 155 6.89357
r163 129 154 6.89612
r164 128 130 0.0451795
r165 128 129 9.6
r166 124 152 6.89357
r167 124 151 6.89612
r168 123 125 0.0451795
r169 123 124 9.6
r170 119 149 6.89484
r171 119 148 6.89484
r172 118 120 0.0451795
r173 118 119 9.6
r174 115 207 8.58
r175 114 116 0.0176388
r176 114 115 4.29
r177 111 202 8.58
r178 110 112 0.0176388
r179 110 111 4.29
r180 107 197 8.58
r181 106 108 0.0176388
r182 106 107 4.29
r183 104 130 0.132
r184 102 125 0.132
r185 100 120 0.132
r186 98 116 0.0243465
r187 97 104 0.0446983
r188 97 98 0.625333
r189 96 102 0.0446983
r190 95 112 0.0243465
r191 95 96 0.625333
r192 94 108 0.0243465
r193 93 100 0.0446983
r194 93 94 0.625333
r195 84 194 0.164
r196 82 89 0.00880368
r197 82 184 0.152
r198 80 92 0.00880368
r199 80 189 0.16
r200 78 90 0.0338756
r201 77 84 0.0446983
r202 77 78 0.893333
r203 76 89 0.0338756
r204 75 92 0.0338756
r205 75 76 1.484
r206 74 92 0.0338756
r207 73 91 0.0338756
r208 73 74 0.893333
r209 72 91 0.0338756
r210 71 90 0.0338756
r211 71 72 0.313333
r212 69 89 0.0338756
r213 69 70 0.893333
r214 67 68 1.18133
r215 66 67 1.18133
r216 65 90 0.00880368
r217 65 68 1.18133
r218 63 64 1.18309
r219 62 63 1.18309
r220 61 91 0.00880368
r221 61 64 1.18309
r222 59 60 1.184
r223 58 59 1.184
r224 57 70 0.0446983
r225 57 60 1.184
r226 56 66 0.0446983
r227 56 180 0.118667
r228 53 62 0.0446983
r229 53 174 0.118667
r230 52 58 0.0446983
r231 51 169 0.024431
r232 51 52 0.118667
r233 50 86 0.0220599
r234 50 168 0.629333
r235 47 164 48.7025
r236 43 163 33.6875
r237 39 161 33.6875
r238 35 160 48.7025
r239 31 158 48.7025
r240 27 157 33.6875
r241 23 155 47.9325
r242 19 154 34.4575
r243 15 152 34.4575
r244 11 151 47.9325
r245 7 149 47.9325
r246 3 148 34.4575
.ends

.subckt PM_DHALLSIPOLAY_OUT3 3 7 11 14 48 51
c1 59 GND 0.0510575f
c2 54 GND 0.026649f
c3 43 GND 0.026015f
c4 40 GND 0.00279f
c5 36 GND 0.00496f
c6 32 GND 0.06243f
c7 31 GND 0.00818245f
c8 29 GND 0.00650814f
c9 27 GND 0.0106476f
c10 24 GND 0.00688014f
c11 21 GND 0.00787152f
c12 18 GND 0.00248f
c13 14 GND 0.0602652f
c14 12 GND 0.02322f
c15 11 GND 0.264306f
c16 10 GND 0.0769975f
c17 7 GND 0.0378383f
c18 3 GND 0.0230463f
r19 54 57 0.0526847
r20 54 59 13.16
r21 43 47 6.89357
r22 43 46 6.89612
r23 42 43 9.6
r24 37 51 4.99523
r25 36 39 0.0451595
r26 36 37 10.4
r27 32 59 8.58
r28 31 32 4.29
r29 28 40 0.00880368
r30 27 42 0.0451795
r31 27 28 0.318667
r32 25 40 0.0338756
r33 25 29 0.186667
r34 24 40 0.0338756
r35 24 39 0.197333
r36 22 48 1.60714
r37 22 31 10.8
r38 21 22 10.8
r39 19 31 0.0427874
r40 19 21 0.12698
r41 18 29 0.043453
r42 18 21 2e-05
r43 14 16 0.00340426
r44 11 16 0.0220599
r45 11 12 0.990667
r46 10 12 0.0446983
r47 10 57 0.265333
r48 7 47 48.125
r49 3 46 34.265
.ends

.subckt PM_DHALLSIPOLAY_OUT1 3 7 11 15 18 21 22 23 24 27 81 84 87
c28 96 GND 0.029889f
c29 93 GND 0.0617874f
c30 92 GND 0.0733155f
c31 91 GND 0.052488f
c32 87 GND 0.06426f
c33 73 GND 0.026015f
c34 70 GND 0.00279f
c35 66 GND 0.00496f
c36 64 GND 0.00650814f
c37 60 GND 0.00793352f
c38 59 GND 0.0866354f
c39 58 GND 0.00775f
c40 55 GND 0.0106476f
c41 52 GND 0.00688014f
c42 49 GND 0.00248f
c43 44 GND 0.025585f
c44 40 GND 6.2e-19
c45 37 GND 0.0934449f
c46 35 GND 0.08537f
c47 33 GND 0.0180825f
c48 30 GND 0.51655f
c49 28 GND 0.03015f
c50 27 GND 0.23314f
c51 26 GND 0.0592849f
c52 24 GND 0.339003f
c53 23 GND 0.359752f
c54 22 GND 0.0241815f
c55 21 GND 0.358974f
c56 20 GND 0.03015f
c57 18 GND 0.21104f
c58 15 GND 0.0378383f
c59 11 GND 0.0230463f
c60 7 GND 0.0236483f
c61 3 GND 0.0372363f
r62 96 99 0.0461131
r63 91 93 0.0461131
r64 91 92 8.58
r65 73 80 6.89484
r66 73 79 6.89484
r67 72 73 9.6
r68 67 84 4.99523
r69 66 69 0.0451595
r70 66 67 10.4
r71 59 96 8.58
r72 58 60 0.0434303
r73 58 59 4.29
r74 56 70 0.00880368
r75 55 72 0.0451795
r76 55 56 0.318667
r77 53 70 0.0338756
r78 53 64 0.186667
r79 52 70 0.0338756
r80 52 69 0.197333
r81 50 81 1.60714
r82 50 58 10.8
r83 49 64 0.043453
r84 49 60 0.128
r85 49 50 10.8
r86 44 77 6.87152
r87 44 76 6.87411
r88 40 44 9.6
r89 40 92 4.29
r90 35 37 0.0461131
r91 35 87 13.16
r92 32 33 0.0296412
r93 32 37 0.217
r94 30 33 0.00770322
r95 29 30 1.19933
r96 27 33 0.0296412
r97 27 28 0.611333
r98 26 28 0.039111
r99 26 99 0.138833
r100 23 24 1.75
r101 22 23 1.75
r102 21 29 0.039111
r103 21 24 1.75
r104 20 93 0.1435
r105 18 22 0.039111
r106 17 20 0.039111
r107 17 18 0.732667
r108 15 80 48.125
r109 11 79 34.265
r110 7 77 35.6125
r111 3 76 46.7775
.ends

.subckt PM_DHALLSIPOLAY_OUT2 3 7 11 15 18 21 22 23 24 26 35 77 80 83
c17 94 GND 0.0944499f
c18 93 GND 0.0860966f
c19 92 GND 0.034506f
c20 89 GND 0.0522499f
c21 87 GND 0.022842f
c22 83 GND 0.06426f
c23 69 GND 0.026015f
c24 66 GND 0.00279f
c25 64 GND 0.00688014f
c26 62 GND 0.00496f
c27 58 GND 0.00248f
c28 51 GND 0.00775f
c29 49 GND 0.025585f
c30 47 GND 0.0563209f
c31 46 GND 0.0013013f
c32 43 GND 0.0106476f
c33 40 GND 0.00650814f
c34 38 GND 0.00799552f
c35 35 GND 0.35374f
c36 33 GND 0.08537f
c37 31 GND 0.01557f
c38 26 GND 0.0321499f
c39 20 GND 0.03015f
c40 18 GND 0.360785f
c41 15 GND 0.0230463f
c42 11 GND 0.0378383f
c43 7 GND 0.0372363f
c44 3 GND 0.0236483f
r45 92 94 0.0461271
r46 92 93 8.58
r47 87 89 0.0461131
r48 69 76 6.89357
r49 69 75 6.89612
r50 68 69 9.6
r51 63 80 4.99523
r52 62 64 0.0451995
r53 62 63 10.4
r54 58 60 0.0451595
r55 52 77 1.60714
r56 52 58 10.8
r57 51 56 0.0442143
r58 51 93 4.29
r59 51 52 10.8
r60 49 73 6.87152
r61 49 72 6.87411
r62 47 87 8.58
r63 46 49 9.6
r64 46 47 4.29
r65 44 66 0.00880368
r66 43 68 0.0451795
r67 43 44 0.318667
r68 41 66 0.0338756
r69 41 64 0.197333
r70 40 66 0.0338756
r71 40 60 0.186667
r72 38 58 2e-05
r73 38 56 0.129
r74 33 35 0.0461131
r75 33 83 13.16
r76 30 31 0.00770322
r77 30 35 0.891333
r78 27 31 0.0296412
r79 27 94 0.219333
r80 26 31 0.0296412
r81 25 26 0.161
r82 23 24 1.51937
r83 22 23 1.51937
r84 21 25 0.039111
r85 21 24 1.51937
r86 20 89 0.123667
r87 18 22 0.039111
r88 17 20 0.039111
r89 17 18 0.950833
r90 15 76 34.265
r91 11 75 48.125
r92 7 73 46.7775
r93 3 72 35.6125
.ends

.subckt PM_DHALLSIPOLAY_7 3 7 10 11 12 14 68 71 74 76
c8 85 GND 0.0854991f
c9 84 GND 0.05346f
c10 79 GND 0.03888f
c11 63 GND 0.0103686f
c12 62 GND 0.02623f
c13 59 GND 0.00279f
c14 55 GND 0.00496f
c15 53 GND 0.00669414f
c16 49 GND 0.00799552f
c17 47 GND 0.00775f
c18 42 GND 0.00496f
c19 40 GND 0.0161801f
c20 36 GND 0.00799552f
c21 35 GND 0.0855285f
c22 34 GND 0.00775f
c23 28 GND 0.00669414f
c24 25 GND 0.00248f
c25 18 GND 0.00248f
c26 14 GND 0.0663199f
c27 12 GND 0.0184725f
c28 11 GND 0.163802f
c29 10 GND 0.0457175f
c30 7 GND 0.0379243f
c31 3 GND 0.0229603f
r32 84 87 0.0461131
r33 84 85 8.58
r34 79 82 0.0461131
r35 62 67 6.90613
r36 62 66 6.90613
r37 61 63 0.0451795
r38 61 62 9.6
r39 56 76 4.99523
r40 55 58 0.0451595
r41 55 56 10.4
r42 47 49 0.0434303
r43 47 85 4.29
r44 43 74 4.99523
r45 42 45 0.0451595
r46 42 43 10.4
r47 40 45 0.464
r48 35 79 8.58
r49 34 36 0.0434303
r50 34 35 4.29
r51 32 59 0.00880368
r52 32 63 0.310667
r53 29 59 0.0338756
r54 29 53 0.192
r55 28 59 0.0338756
r56 28 58 0.192
r57 26 71 1.60714
r58 26 47 10.8
r59 25 53 0.0436996
r60 25 49 0.129
r61 25 26 10.8
r62 19 68 1.60714
r63 19 34 10.8
r64 18 40 0.0436996
r65 18 36 0.129
r66 18 19 10.8
r67 14 87 0.155167
r68 11 14 0.039111
r69 11 12 0.504
r70 10 12 0.039111
r71 10 82 0.151667
r72 7 67 48.3175
r73 3 66 34.0725
.ends

.subckt PM_DHALLSIPOLAY_8 3 7 11 12 68 71 74 76 81 86
c8 86 GND 0.0663199f
c9 84 GND 0.05346f
c10 81 GND 0.0457175f
c11 79 GND 0.03888f
c12 63 GND 0.0103686f
c13 62 GND 0.02623f
c14 59 GND 0.00279f
c15 57 GND 0.00669414f
c16 55 GND 0.00496f
c17 51 GND 0.00248f
c18 48 GND 0.0854991f
c19 44 GND 0.00775f
c20 41 GND 0.0161801f
c21 39 GND 0.00496f
c22 35 GND 0.00248f
c23 32 GND 0.0855285f
c24 28 GND 0.00775f
c25 22 GND 0.00669414f
c26 20 GND 0.00799552f
c27 16 GND 0.00799552f
c28 12 GND 0.0184725f
c29 11 GND 0.163802f
c30 7 GND 0.0229603f
c31 3 GND 0.0379243f
r32 84 86 0.0461271
r33 79 81 0.0461271
r34 62 67 6.90486
r35 62 66 6.90739
r36 61 63 0.0451795
r37 61 62 9.6
r38 56 76 4.99523
r39 55 57 0.0451995
r40 55 56 10.4
r41 51 53 0.0451595
r42 48 84 8.58
r43 45 71 1.60714
r44 45 51 10.8
r45 44 49 0.0442143
r46 44 48 4.29
r47 44 45 10.8
r48 40 74 4.99523
r49 39 41 0.0451995
r50 39 40 10.4
r51 37 41 0.464
r52 35 37 0.0451595
r53 32 79 8.58
r54 29 68 1.60714
r55 29 35 10.8
r56 28 33 0.0442143
r57 28 32 4.29
r58 28 29 10.8
r59 26 59 0.00880368
r60 26 63 0.310667
r61 23 59 0.0338756
r62 23 57 0.192
r63 22 59 0.0338756
r64 22 53 0.192
r65 20 51 2e-05
r66 20 49 0.129
r67 16 35 2e-05
r68 16 33 0.129
r69 13 86 0.155167
r70 11 13 0.039111
r71 11 12 0.504
r72 9 12 0.039111
r73 9 81 0.151667
r74 7 67 34.0725
r75 3 66 48.3175
.ends

.subckt PM_DHALLSIPOLAY_9 3 7 10 11 12 14 68 71 74 76
c8 85 GND 0.0854991f
c9 84 GND 0.05346f
c10 79 GND 0.03888f
c11 63 GND 0.0103686f
c12 62 GND 0.02623f
c13 59 GND 0.00279f
c14 55 GND 0.00496f
c15 53 GND 0.00669414f
c16 47 GND 0.00775f
c17 42 GND 0.00496f
c18 40 GND 0.0161801f
c19 35 GND 0.0855285f
c20 34 GND 0.00775f
c21 28 GND 0.00669414f
c22 25 GND 0.00799552f
c23 22 GND 0.00248f
c24 18 GND 0.00799552f
c25 15 GND 0.00248f
c26 14 GND 0.0663199f
c27 12 GND 0.0184725f
c28 11 GND 0.163802f
c29 10 GND 0.0457175f
c30 7 GND 0.0379243f
c31 3 GND 0.0229603f
r32 84 87 0.0460991
r33 84 85 8.58
r34 79 82 0.0460991
r35 62 67 6.90486
r36 62 66 6.90739
r37 61 63 0.0451795
r38 61 62 9.6
r39 56 76 4.99523
r40 55 58 0.0451595
r41 55 56 10.4
r42 47 49 0.0434463
r43 47 85 4.29
r44 43 74 4.99523
r45 42 45 0.0451595
r46 42 43 10.4
r47 40 45 0.464
r48 35 79 8.58
r49 34 36 0.0434463
r50 34 35 4.29
r51 32 59 0.00880368
r52 32 63 0.310667
r53 29 59 0.0338756
r54 29 53 0.192
r55 28 59 0.0338756
r56 28 58 0.192
r57 26 71 1.60714
r58 26 47 10.8
r59 25 49 0.12898
r60 25 26 10.8
r61 22 53 0.0436996
r62 22 25 2e-05
r63 19 68 1.60714
r64 19 34 10.8
r65 18 36 0.12898
r66 18 19 10.8
r67 15 40 0.0436996
r68 15 18 2e-05
r69 14 87 0.155167
r70 11 14 0.039111
r71 11 12 0.504
r72 10 12 0.039111
r73 10 82 0.151667
r74 7 67 48.3175
r75 3 66 34.0725
.ends

.subckt PM_DHALLSIPOLAY_10 3 7 10 11 12 68 71 74 76
c6 85 GND 0.0854991f
c7 84 GND 0.05346f
c8 79 GND 0.03888f
c9 63 GND 0.0103686f
c10 62 GND 0.02623f
c11 59 GND 0.00279f
c12 55 GND 0.00496f
c13 53 GND 0.00669414f
c14 49 GND 0.00799552f
c15 47 GND 0.00775f
c16 42 GND 0.00496f
c17 40 GND 0.0161801f
c18 36 GND 0.00799552f
c19 35 GND 0.0855285f
c20 34 GND 0.00775f
c21 28 GND 0.00669414f
c22 25 GND 0.00248f
c23 18 GND 0.00248f
c24 14 GND 0.0663199f
c25 12 GND 0.0184725f
c26 11 GND 0.164253f
c27 10 GND 0.04622f
c28 7 GND 0.0379243f
c29 3 GND 0.0229603f
r30 84 87 0.0461131
r31 84 85 8.58
r32 79 82 0.0461131
r33 62 67 6.90613
r34 62 66 6.90613
r35 61 63 0.0451795
r36 61 62 9.6
r37 56 76 4.99523
r38 55 58 0.0451595
r39 55 56 10.4
r40 47 49 0.0434303
r41 47 85 4.29
r42 43 74 4.99523
r43 42 45 0.0451595
r44 42 43 10.4
r45 40 45 0.464
r46 35 79 8.58
r47 34 36 0.0434303
r48 34 35 4.29
r49 32 59 0.00880368
r50 32 63 0.310667
r51 29 59 0.0338756
r52 29 53 0.192
r53 28 59 0.0338756
r54 28 58 0.192
r55 26 71 1.60714
r56 26 47 10.8
r57 25 53 0.0436996
r58 25 49 0.129
r59 25 26 10.8
r60 19 68 1.60714
r61 19 34 10.8
r62 18 40 0.0436996
r63 18 36 0.129
r64 18 19 10.8
r65 14 87 0.155167
r66 11 14 0.039111
r67 11 12 0.504
r68 10 12 0.039111
r69 10 82 0.151667
r70 7 67 48.3175
r71 3 66 34.0725
.ends

.subckt PM_DHALLSIPOLAY_11 3 7 11 12 68 71 74 76 81
c6 86 GND 0.0663199f
c7 84 GND 0.05346f
c8 81 GND 0.04622f
c9 79 GND 0.03888f
c10 63 GND 0.0103686f
c11 62 GND 0.02623f
c12 59 GND 0.00279f
c13 57 GND 0.00669414f
c14 55 GND 0.00496f
c15 51 GND 0.00248f
c16 48 GND 0.0854991f
c17 44 GND 0.00775f
c18 41 GND 0.0161801f
c19 39 GND 0.00496f
c20 35 GND 0.00248f
c21 32 GND 0.0855285f
c22 28 GND 0.00775f
c23 22 GND 0.00669414f
c24 20 GND 0.00799552f
c25 16 GND 0.00799552f
c26 12 GND 0.0184725f
c27 11 GND 0.164253f
c28 7 GND 0.0229603f
c29 3 GND 0.0379243f
r30 84 86 0.0461271
r31 79 81 0.0461271
r32 62 67 6.90486
r33 62 66 6.90739
r34 61 63 0.0451795
r35 61 62 9.6
r36 56 76 4.99523
r37 55 57 0.0451995
r38 55 56 10.4
r39 51 53 0.0451595
r40 48 84 8.58
r41 45 71 1.60714
r42 45 51 10.8
r43 44 49 0.0442143
r44 44 48 4.29
r45 44 45 10.8
r46 40 74 4.99523
r47 39 41 0.0451995
r48 39 40 10.4
r49 37 41 0.464
r50 35 37 0.0451595
r51 32 79 8.58
r52 29 68 1.60714
r53 29 35 10.8
r54 28 33 0.0442143
r55 28 32 4.29
r56 28 29 10.8
r57 26 59 0.00880368
r58 26 63 0.310667
r59 23 59 0.0338756
r60 23 57 0.192
r61 22 59 0.0338756
r62 22 53 0.192
r63 20 51 2e-05
r64 20 49 0.129
r65 16 35 2e-05
r66 16 33 0.129
r67 13 86 0.155167
r68 11 13 0.039111
r69 11 12 0.504
r70 9 12 0.039111
r71 9 81 0.151667
r72 7 67 34.0725
r73 3 66 48.3175
.ends

.subckt PM_DHALLSIPOLAY_12 3 7 10 11 12 68 71 74 76
c6 85 GND 0.0854991f
c7 84 GND 0.05346f
c8 79 GND 0.03888f
c9 63 GND 0.0103686f
c10 62 GND 0.02623f
c11 59 GND 0.00279f
c12 55 GND 0.00496f
c13 53 GND 0.00669414f
c14 47 GND 0.00775f
c15 42 GND 0.00496f
c16 40 GND 0.0161801f
c17 35 GND 0.0855285f
c18 34 GND 0.00775f
c19 28 GND 0.00669414f
c20 25 GND 0.00799552f
c21 22 GND 0.00248f
c22 18 GND 0.00799552f
c23 15 GND 0.00248f
c24 14 GND 0.0663199f
c25 12 GND 0.0184725f
c26 11 GND 0.164253f
c27 10 GND 0.04622f
c28 7 GND 0.0379243f
c29 3 GND 0.0229603f
r30 84 87 0.0460991
r31 84 85 8.58
r32 79 82 0.0460991
r33 62 67 6.90486
r34 62 66 6.90739
r35 61 63 0.0451795
r36 61 62 9.6
r37 56 76 4.99523
r38 55 58 0.0451595
r39 55 56 10.4
r40 47 49 0.0434463
r41 47 85 4.29
r42 43 74 4.99523
r43 42 45 0.0451595
r44 42 43 10.4
r45 40 45 0.464
r46 35 79 8.58
r47 34 36 0.0434463
r48 34 35 4.29
r49 32 59 0.00880368
r50 32 63 0.310667
r51 29 59 0.0338756
r52 29 53 0.192
r53 28 59 0.0338756
r54 28 58 0.192
r55 26 71 1.60714
r56 26 47 10.8
r57 25 49 0.12898
r58 25 26 10.8
r59 22 53 0.0436996
r60 22 25 2e-05
r61 19 68 1.60714
r62 19 34 10.8
r63 18 36 0.12898
r64 18 19 10.8
r65 15 40 0.0436996
r66 15 18 2e-05
r67 14 87 0.155167
r68 11 14 0.039111
r69 11 12 0.504
r70 10 12 0.039111
r71 10 82 0.151667
r72 7 67 48.3175
r73 3 66 34.0725
.ends

.subckt PM_DHALLSIPOLAY_13 2 3 4 40 43 46 48
c16 37 GND 0.038232f
c17 36 GND 0.008091f
c18 31 GND 0.00799614f
c19 30 GND 0.07434f
c20 29 GND 0.00775f
c21 24 GND 0.0161801f
c22 21 GND 0.00973276f
c23 15 GND 0.00496f
c24 12 GND 0.0136388f
c25 9 GND 0.00248f
c26 6 GND 0.0564459f
c27 4 GND 4.56825e-20
c28 3 GND 0.164896f
c29 2 GND 0.169733f
r30 37 55 0.0461131
r31 36 37 4.29
r32 33 48 4.99523
r33 30 52 0.0460991
r34 29 33 10.4
r35 29 31 0.0527007
r36 29 30 4.29
r37 27 46 4.99523
r38 26 27 10.4
r39 22 43 1.60714
r40 22 36 10.8
r41 21 22 10.8
r42 19 36 0.0432421
r43 19 21 0.117
r44 18 26 0.0207899
r45 18 31 0.229333
r46 15 26 0.0239084
r47 15 24 0.464
r48 10 40 1.60714
r49 10 12 10.8
r50 9 24 0.0432372
r51 9 12 0.18
r52 9 10 10.8
r53 6 55 0.1225
r54 3 6 0.039111
r55 3 4 0.5005
r56 2 4 0.039111
r57 2 52 0.8155
.ends

.subckt PM_DHALLSIPOLAY_14 3 4 40 43 46 48 51
c16 54 GND 0.0564459f
c17 51 GND 0.169733f
c18 39 GND 0.038232f
c19 33 GND 0.07434f
c20 31 GND 0.00799614f
c21 29 GND 0.00775f
c22 22 GND 0.00248f
c23 18 GND 0.00973276f
c24 16 GND 0.008091f
c25 13 GND 0.0211401f
c26 9 GND 0.0136388f
c27 4 GND 4.56825e-20
c28 3 GND 0.164896f
r29 39 54 0.0461271
r30 37 43 1.60714
r31 36 39 4.29
r32 36 37 10.8
r33 33 51 0.0461271
r34 30 48 4.99523
r35 29 33 4.29
r36 29 31 0.0527007
r37 29 30 10.4
r38 27 46 4.99523
r39 26 27 10.4
r40 22 24 0.0451595
r41 18 37 10.8
r42 16 36 0.0534888
r43 16 18 0.11702
r44 15 26 0.0207899
r45 15 31 0.229333
r46 13 26 0.0239084
r47 13 24 0.464
r48 10 40 1.60714
r49 10 22 10.8
r50 9 10 10.8
r51 7 22 2e-05
r52 7 9 0.17998
r53 5 54 0.1225
r54 3 5 0.039111
r55 3 4 0.5005
r56 1 4 0.039111
r57 1 51 0.8155
.ends

.subckt PM_DHALLSIPOLAY_15 2 3 4 40 43 46 48
c16 37 GND 0.038232f
c17 36 GND 0.008091f
c18 31 GND 0.00799614f
c19 30 GND 0.07434f
c20 29 GND 0.00775f
c21 24 GND 0.0161801f
c22 21 GND 0.00973276f
c23 15 GND 0.00496f
c24 9 GND 0.0136388f
c25 7 GND 0.00248f
c26 6 GND 0.0564459f
c27 4 GND 4.56825e-20
c28 3 GND 0.164896f
c29 2 GND 0.169733f
r30 37 55 0.0460991
r31 36 37 4.29
r32 33 48 4.99523
r33 30 52 0.0460991
r34 29 33 10.4
r35 29 31 0.0527007
r36 29 30 4.29
r37 27 46 4.99523
r38 26 27 10.4
r39 22 43 1.60714
r40 22 36 10.8
r41 21 22 10.8
r42 19 36 0.0432579
r43 19 21 0.11698
r44 18 26 0.0207899
r45 18 31 0.229333
r46 15 26 0.0239084
r47 15 24 0.464
r48 10 40 1.60714
r49 10 12 10.8
r50 9 12 0.18
r51 9 10 10.8
r52 7 24 0.0432372
r53 7 9 2e-05
r54 6 55 0.1225
r55 3 6 0.039111
r56 3 4 0.5005
r57 2 4 0.039111
r58 2 52 0.8155
.ends

.subckt PM_DHALLSIPOLAY_16 3 9 13 14 15 17 19 33 49 52 55 57
c18 63 GND 0.0470254f
c19 60 GND 0.0486859f
c20 44 GND 0.07434f
c21 43 GND 0.00775f
c22 41 GND 0.0157616f
c23 37 GND 0.00362514f
c24 36 GND 0.07434f
c25 35 GND 0.00775f
c26 33 GND 0.00248f
c27 25 GND 0.0136388f
c28 22 GND 0.00248f
c29 19 GND 0.00279f
c30 17 GND 0.0346871f
c31 15 GND 0.00279f
c32 14 GND 0.0151106f
c33 13 GND 0.00576414f
c34 9 GND 0.0136388f
c35 4 GND 0.03321f
c36 3 GND 0.530784f
r37 47 57 4.99523
r38 44 63 0.0461271
r39 43 48 0.0526847
r40 43 47 10.4
r41 43 44 4.29
r42 41 48 0.452
r43 39 55 4.99523
r44 36 60 0.0461271
r45 35 39 10.4
r46 35 37 0.0527007
r47 35 36 4.29
r48 31 33 0.0451795
r49 23 52 1.60714
r50 23 25 10.8
r51 22 41 0.0430468
r52 22 25 0.18
r53 22 23 10.8
r54 19 37 0.104
r55 16 19 0.0446983
r56 16 17 0.994667
r57 14 17 0.0446983
r58 14 15 0.353333
r59 13 15 0.0446983
r60 13 33 0.165333
r61 10 49 1.60714
r62 10 31 10.8
r63 9 31 0.18
r64 9 10 10.8
r65 5 63 0.0991667
r66 3 5 0.039111
r67 3 4 1.18883
r68 1 4 0.039111
r69 1 60 0.102667
.ends

.subckt PM_DHALLSIPOLAY_17 3 7 9 17 18 20 22 30 49 52 55 57
c18 47 GND 0.07434f
c19 45 GND 0.0157616f
c20 43 GND 0.00775f
c21 39 GND 0.00248f
c22 34 GND 0.00362514f
c23 33 GND 0.07434f
c24 32 GND 0.00775f
c25 30 GND 0.00576414f
c26 25 GND 0.0136388f
c27 22 GND 0.00279f
c28 20 GND 0.0346871f
c29 18 GND 0.00279f
c30 17 GND 0.0151106f
c31 9 GND 0.0136388f
c32 7 GND 0.00248f
c33 6 GND 0.0470254f
c34 4 GND 0.03321f
c35 3 GND 0.530784f
c36 2 GND 0.0486859f
r37 47 64 0.0460991
r38 44 57 4.99523
r39 43 47 4.29
r40 43 45 0.0519167
r41 43 44 10.4
r42 41 45 0.452
r43 39 41 0.0451595
r44 36 55 4.99523
r45 33 61 0.0460991
r46 32 36 10.4
r47 32 34 0.0527007
r48 32 33 4.29
r49 26 52 1.60714
r50 26 39 10.8
r51 25 26 10.8
r52 23 39 2e-05
r53 23 25 0.17998
r54 22 34 0.104
r55 20 22 0.0446983
r56 19 20 0.994667
r57 17 19 0.0446983
r58 17 18 0.353333
r59 15 18 0.0446983
r60 15 30 0.165333
r61 10 49 1.60714
r62 10 12 10.8
r63 9 12 0.18
r64 9 10 10.8
r65 7 30 0.0430468
r66 7 9 2e-05
r67 6 64 0.0991667
r68 3 6 0.039111
r69 3 4 1.18883
r70 2 4 0.039111
r71 2 61 0.102667
.ends

.subckt PM_DHALLSIPOLAY_18 3 9 13 14 15 17 19 31 49 52 55 57
c18 63 GND 0.0470254f
c19 60 GND 0.0486859f
c20 44 GND 0.07434f
c21 43 GND 0.00775f
c22 41 GND 0.0157616f
c23 37 GND 0.00362514f
c24 36 GND 0.07434f
c25 35 GND 0.00775f
c26 31 GND 0.00248f
c27 22 GND 0.0136388f
c28 20 GND 0.00248f
c29 19 GND 0.00279f
c30 17 GND 0.0346871f
c31 15 GND 0.00279f
c32 14 GND 0.0151106f
c33 13 GND 0.00576414f
c34 9 GND 0.0136388f
c35 4 GND 0.03321f
c36 3 GND 0.530784f
r37 47 57 4.99523
r38 44 63 0.0461271
r39 43 48 0.0526847
r40 43 47 10.4
r41 43 44 4.29
r42 41 48 0.452
r43 39 55 4.99523
r44 36 60 0.0461271
r45 35 39 10.4
r46 35 37 0.0527007
r47 35 36 4.29
r48 31 33 0.0451595
r49 23 52 1.60714
r50 23 25 10.8
r51 22 25 0.18
r52 22 23 10.8
r53 20 41 0.0430468
r54 20 22 2e-05
r55 19 37 0.104
r56 16 19 0.0446983
r57 16 17 0.994667
r58 14 17 0.0446983
r59 14 15 0.353333
r60 13 15 0.0446983
r61 13 33 0.165333
r62 10 49 1.60714
r63 10 31 10.8
r64 9 10 10.8
r65 7 31 2e-05
r66 7 9 0.17998
r67 5 63 0.0991667
r68 3 5 0.039111
r69 3 4 1.18883
r70 1 4 0.039111
r71 1 60 0.102667
.ends

.subckt PM_DHALLSIPOLAY_19 3 7 11 15 18 19 20 22 65 68
c5 74 GND 0.0464719f
c6 58 GND 0.025585f
c7 56 GND 0.0374355f
c8 55 GND 9.1388e-19
c9 52 GND 0.026015f
c10 49 GND 0.00279f
c11 45 GND 0.00496f
c12 43 GND 0.00650814f
c13 39 GND 0.00774752f
c14 38 GND 0.06903f
c15 37 GND 0.00775f
c16 34 GND 0.0106476f
c17 31 GND 0.00688014f
c18 28 GND 0.00248f
c19 24 GND 0.03321f
c20 22 GND 0.277835f
c21 20 GND 0.03321f
c22 19 GND 0.292779f
c23 18 GND 0.0564349f
c24 15 GND 0.0372363f
c25 11 GND 0.0236483f
c26 7 GND 0.0378383f
c27 3 GND 0.0230463f
r28 58 64 6.87281
r29 58 63 6.87281
r30 56 74 0.0461131
r31 55 58 9.6
r32 55 56 4.29
r33 52 61 6.89484
r34 52 60 6.89484
r35 51 52 9.6
r36 46 68 4.99523
r37 45 48 0.0451595
r38 45 46 10.4
r39 38 72 0.0461131
r40 37 39 0.0434303
r41 37 38 4.29
r42 35 49 0.00880368
r43 34 51 0.0451795
r44 34 35 0.318667
r45 32 49 0.0338756
r46 32 43 0.186667
r47 31 49 0.0338756
r48 31 48 0.197333
r49 29 65 1.60714
r50 29 37 10.8
r51 28 43 0.043453
r52 28 39 0.125
r53 28 29 10.8
r54 24 74 0.098
r55 21 24 0.039111
r56 21 22 0.585667
r57 19 22 0.039111
r58 19 20 0.617167
r59 18 20 0.039111
r60 18 72 0.119
r61 15 64 46.7775
r62 11 63 35.6125
r63 7 61 48.125
r64 3 60 34.265
.ends

.subckt PM_DHALLSIPOLAY_20 3 7 11 15 19 20 22 65 68 71
c5 74 GND 0.0464719f
c6 71 GND 0.0564349f
c7 58 GND 0.025585f
c8 56 GND 0.0374355f
c9 55 GND 9.1388e-19
c10 52 GND 0.026015f
c11 49 GND 0.00279f
c12 47 GND 0.00688014f
c13 45 GND 0.00496f
c14 41 GND 0.00248f
c15 38 GND 0.06903f
c16 34 GND 0.00775f
c17 31 GND 0.0106476f
c18 28 GND 0.00650814f
c19 26 GND 0.00774752f
c20 24 GND 0.03321f
c21 22 GND 0.277835f
c22 20 GND 0.03321f
c23 19 GND 0.292779f
c24 15 GND 0.0236483f
c25 11 GND 0.0372363f
c26 7 GND 0.0230463f
c27 3 GND 0.0378383f
r28 58 64 6.87152
r29 58 63 6.87411
r30 56 74 0.0461131
r31 55 58 9.6
r32 55 56 4.29
r33 52 61 6.89357
r34 52 60 6.89612
r35 51 52 9.6
r36 46 68 4.99523
r37 45 47 0.0451995
r38 45 46 10.4
r39 41 43 0.0451595
r40 38 71 0.0461271
r41 35 65 1.60714
r42 35 41 10.8
r43 34 39 0.0474143
r44 34 38 4.29
r45 34 35 10.8
r46 32 49 0.00880368
r47 31 51 0.0451795
r48 31 32 0.318667
r49 29 49 0.0338756
r50 29 47 0.197333
r51 28 49 0.0338756
r52 28 43 0.186667
r53 26 41 2e-05
r54 26 39 0.125
r55 24 74 0.098
r56 22 24 0.039111
r57 21 22 0.585667
r58 19 21 0.039111
r59 19 20 0.617167
r60 17 20 0.039111
r61 17 71 0.119
r62 15 64 35.6125
r63 11 63 46.7775
r64 7 61 34.265
r65 3 60 48.125
.ends

.subckt PM_DHALLSIPOLAY_21 3 7 11 15 18 19 20 22 65 68
c5 74 GND 0.0464719f
c6 58 GND 0.025585f
c7 56 GND 0.0374355f
c8 55 GND 9.1388e-19
c9 52 GND 0.026015f
c10 49 GND 0.00279f
c11 45 GND 0.00496f
c12 43 GND 0.00650814f
c13 38 GND 0.06903f
c14 37 GND 0.00775f
c15 34 GND 0.0106476f
c16 31 GND 0.00688014f
c17 28 GND 0.00774752f
c18 25 GND 0.00248f
c19 24 GND 0.03321f
c20 22 GND 0.277835f
c21 20 GND 0.03321f
c22 19 GND 0.292779f
c23 18 GND 0.0564349f
c24 15 GND 0.0372363f
c25 11 GND 0.0236483f
c26 7 GND 0.0378383f
c27 3 GND 0.0230463f
r28 58 64 6.87152
r29 58 63 6.87411
r30 56 74 0.0461131
r31 55 58 9.6
r32 55 56 4.29
r33 52 61 6.89357
r34 52 60 6.89612
r35 51 52 9.6
r36 46 68 4.99523
r37 45 48 0.0451595
r38 45 46 10.4
r39 38 72 0.0460991
r40 37 39 0.0434463
r41 37 38 4.29
r42 35 49 0.00880368