* ELDO netlist generated with ICnet by 'vlsi' on Mon Oct 23 2017 at 18:56:15

.CONNECT GND 0

*
* Component pathname : /home/vlsi/g4/exc
*
.subckt EXC  OUT GND IN1 IN2 VDD

        MP4 OUT IN1 IN2 VDD p L=1.8e-07 W=1.26e-06
        MN4 OUT N$32 IN2 VSS n L=1.8e-07 W=3.6e-07
        MN2 N$32 IN1 GND VSS n L=1.8e-07 W=3.6e-07
        MP2 N$32 IN1 VDD VDD p L=1.8e-07 W=1.26e-06
        MN1 OUT IN2 N$32 VSS n L=1.8e-07 W=3.6e-07
        MP1 OUT IN2 IN1 VDD p L=1.8e-07 W=1.26e-06
.ends EXC

*
* Component pathname : /home/vlsi/g4/xor
*
.subckt XOR  OUT GND IN1 IN2 VDD

        MN7 OUT N$22 GND VSS n L=1.8e-07 W=3.6e-07
        MP7 OUT N$22 VDD VDD p L=1.8e-07 W=1.26e-06
        MP6 N$47 IN2 VDD VDD p L=1.8e-07 W=1.26e-06
        MN6 N$47 IN2 GND VSS n L=1.8e-07 W=3.6e-07
        MP5 N$59 IN1 VDD VDD p L=1.8e-07 W=1.26e-06
        MN5 N$59 IN1 GND VSS n L=1.8e-07 W=3.6e-07
        MN1 N$22 N$59 N$24 VSS n L=1.8e-07 W=7.2e-07
        MN4 N$2 N$47 GND VSS n L=1.8e-07 W=7.2e-07
        MN3 N$24 IN2 GND VSS n L=1.8e-07 W=7.2e-07
        MN2 N$22 IN1 N$2 VSS n L=1.8e-07 W=7.2e-07
        MP4 N$22 N$47 N$7 VDD p L=1.8e-07 W=2.52e-06
        MP3 N$7 N$59 VDD VDD p L=1.8e-07 W=2.52e-06
        MP2 N$22 IN2 N$31 VDD p L=1.8e-07 W=2.52e-06
        MP1 N$31 IN1 VDD VDD p L=1.8e-07 W=2.52e-06
.ends XOR

*
* MAIN CELL: Component pathname : /home/vlsi/g4/test
*
        X_EXC1 OUT1 GND IN1 IN2 VDD EXC
        X_EXC2 OUT2 GND IN1 IN2 VDD XOR
*
.end
